Version 4
SHEET 1 4372 964
WIRE 1776 -640 1776 -656
WIRE 1888 -640 1888 -656
WIRE 1888 -640 1776 -640
WIRE 1776 -608 1776 -640
WIRE 2960 -608 2960 -640
WIRE 2960 -608 2544 -608
WIRE 656 -528 320 -528
WIRE 1024 -528 1024 -592
WIRE 1024 -528 720 -528
WIRE 2880 -496 2640 -496
WIRE 3024 -496 2944 -496
WIRE 3136 -496 3024 -496
WIRE 3264 -496 3216 -496
WIRE 3392 -496 3264 -496
WIRE 3520 -496 3472 -496
WIRE 1280 -448 1088 -448
WIRE 320 -432 320 -528
WIRE 656 -432 320 -432
WIRE 864 -432 736 -432
WIRE 2544 -432 2544 -608
WIRE 2640 -432 2640 -496
WIRE 2640 -432 2544 -432
WIRE 1024 -416 1024 -528
WIRE 2400 -384 2400 -400
WIRE 2544 -384 2544 -432
WIRE 2544 -384 2528 -384
WIRE 1088 -368 1088 -448
WIRE 1152 -368 1088 -368
WIRE 1776 -368 1776 -384
WIRE 1888 -368 1888 -384
WIRE 1888 -368 1776 -368
WIRE 2528 -368 2528 -384
WIRE 1280 -352 1280 -448
WIRE 1280 -352 1216 -352
WIRE 1312 -352 1280 -352
WIRE 1152 -336 1104 -336
WIRE 1776 -336 1776 -368
WIRE 2656 -320 2528 -320
WIRE 240 -288 192 -288
WIRE 320 -288 320 -432
WIRE 688 -288 320 -288
WIRE 1664 -288 1664 -304
WIRE 1712 -288 1664 -288
WIRE 2400 -288 2400 -304
WIRE 2480 -288 2400 -288
WIRE 864 -272 864 -432
WIRE 864 -272 752 -272
WIRE 1024 -272 1024 -336
WIRE 1024 -272 864 -272
WIRE 1072 -272 1024 -272
WIRE 1104 -272 1104 -336
WIRE 1104 -272 1072 -272
WIRE 192 -256 192 -288
WIRE 688 -256 544 -256
WIRE 1024 -240 1024 -272
WIRE 1312 -240 1312 -352
WIRE 1344 -240 1312 -240
WIRE 1472 -240 1424 -240
WIRE 1536 -240 1472 -240
WIRE 1664 -240 1664 -288
WIRE 1664 -240 1616 -240
WIRE 2032 -240 1808 -240
WIRE 2112 -240 2032 -240
WIRE 2400 -240 2400 -288
WIRE 2528 -224 2528 -272
WIRE 2688 -224 2528 -224
WIRE 2032 -208 2032 -240
WIRE 2112 -208 2112 -240
WIRE 1472 -144 1472 -176
WIRE 1536 -144 1472 -144
WIRE 1664 -144 1664 -176
WIRE 1664 -144 1536 -144
WIRE 1536 -128 1536 -144
WIRE 544 -112 544 -256
WIRE 640 -112 544 -112
WIRE 752 -112 704 -112
WIRE 864 -112 864 -272
WIRE 864 -112 832 -112
WIRE 1808 -112 1808 -240
WIRE 1840 -112 1808 -112
WIRE 544 -96 544 -112
WIRE 544 -96 416 -96
WIRE 2032 -96 2032 -128
WIRE 2032 -96 1904 -96
WIRE 2112 -96 2112 -128
WIRE 1712 -80 1712 -288
WIRE 1840 -80 1712 -80
WIRE 2400 -64 2400 -176
WIRE 2688 -48 2640 -48
WIRE 2032 -32 2032 -96
WIRE 2096 -32 2032 -32
WIRE 2640 -32 2640 -48
WIRE 416 -16 416 -32
WIRE 544 -16 416 -16
WIRE 1024 -16 1024 -160
WIRE 1024 -16 832 -16
WIRE 416 0 416 -16
WIRE 1024 32 1024 -16
WIRE 2832 48 2544 48
WIRE 2960 48 2960 16
WIRE 2960 48 2832 48
WIRE 320 96 320 -288
WIRE 640 96 320 96
WIRE 832 96 832 -16
WIRE 832 96 704 96
WIRE 2544 96 2544 48
WIRE 2576 96 2544 96
WIRE 2688 96 2688 -48
WIRE 2688 96 2656 96
WIRE 2544 112 2544 96
WIRE 2656 112 2544 112
WIRE 2416 144 2416 128
WIRE 2832 144 2832 48
WIRE 2864 144 2832 144
WIRE 2992 144 2944 144
WIRE 3152 144 2992 144
WIRE 3280 144 3232 144
WIRE 3408 144 3280 144
WIRE 2576 160 2544 160
WIRE 2576 176 2576 160
WIRE 2656 176 2576 176
WIRE 2672 208 2544 208
WIRE 2416 240 2416 224
WIRE 2496 240 2416 240
WIRE 2416 288 2416 240
WIRE 2544 304 2544 256
WIRE 2704 304 2544 304
WIRE 1104 400 1104 -272
WIRE 2416 400 2416 352
WIRE 2416 400 1104 400
FLAG 1776 -336 0
FLAG 1776 -464 V_pos
IOPIN 1776 -464 Out
FLAG 1888 -464 V_neg
IOPIN 1888 -464 Out
FLAG 1776 -608 0
FLAG 1776 -736 Vdd
IOPIN 1776 -736 Out
FLAG 1888 -736 Vss
IOPIN 1888 -736 Out
FLAG 720 -304 Vdd
IOPIN 720 -304 In
FLAG 720 -240 Vss
IOPIN 720 -240 In
FLAG 1024 -672 V_pos
IOPIN 1024 -672 In
FLAG 1024 112 V_neg
IOPIN 1024 112 In
FLAG 416 0 0
FLAG 192 -256 0
FLAG 1072 -272 V_Sine
FLAG 1536 -128 0
FLAG 1872 -128 Vdd
IOPIN 1872 -128 In
FLAG 1872 -64 Vss
IOPIN 1872 -64 In
FLAG 2096 -32 V_Cosine
FLAG 2112 -96 0
FLAG 1184 -384 Vdd
IOPIN 1184 -384 In
FLAG 1184 -320 Vss
IOPIN 1184 -320 In
FLAG 1664 -304 V_inter
FLAG 2416 48 0
FLAG 2640 -32 0
FLAG 2704 384 0
FLAG 2672 208 0
FLAG 2400 -480 0
FLAG 2688 -144 0
FLAG 2656 -320 0
FLAG 2960 -640 Vcos_Mix
FLAG 2960 16 Vsine_Mix
FLAG 2992 208 0
FLAG 3408 144 Sin_Final
FLAG 3280 208 0
FLAG 3392 -496 Cos_Final
FLAG 3264 -432 0
FLAG 2400 16 0
FLAG 3024 -416 0
FLAG 3520 -432 0
SYMBOL OpAmps\\opamp2 720 -336 R0
SYMATTR InstName U1
SYMATTR Value UA741
SYMBOL voltage 1776 -480 R0
WINDOW 123 0 0 Left 0
WINDOW 39 0 0 Left 0
SYMATTR InstName V1
SYMATTR Value 15
SYMBOL voltage 1888 -480 R0
WINDOW 123 0 0 Left 0
WINDOW 39 0 0 Left 0
SYMATTR InstName V2
SYMATTR Value -15
SYMBOL voltage 1776 -752 R0
WINDOW 123 0 0 Left 0
WINDOW 39 0 0 Left 0
SYMATTR InstName V3
SYMATTR Value 15
SYMBOL voltage 1888 -752 R0
WINDOW 123 0 0 Left 0
WINDOW 39 0 0 Left 0
SYMATTR InstName V4
SYMATTR Value -15
SYMBOL cap 400 -96 R0
SYMATTR InstName Cp
SYMATTR Value {C}
SYMBOL cap 704 -128 R90
WINDOW 0 0 32 VBottom 2
WINDOW 3 32 32 VTop 2
SYMATTR InstName Cs
SYMATTR Value {C}
SYMBOL res 528 -112 R0
SYMATTR InstName Rp
SYMATTR Value {R}
SYMBOL res 848 -128 R90
WINDOW 0 0 56 VBottom 2
WINDOW 3 32 56 VTop 2
SYMATTR InstName Rs
SYMATTR Value {R}
SYMBOL res 752 -448 R90
WINDOW 0 0 56 VBottom 2
WINDOW 3 32 56 VTop 2
SYMATTR InstName R2
SYMATTR Value 26.45k
SYMBOL res 336 -304 R90
WINDOW 0 0 56 VBottom 2
WINDOW 3 32 56 VTop 2
SYMATTR InstName R1
SYMATTR Value 10k
SYMBOL res 1040 -320 R180
WINDOW 0 36 76 Left 2
WINDOW 3 36 40 Left 2
SYMATTR InstName R4
SYMATTR Value {y}
SYMBOL res 1040 -576 R180
WINDOW 0 36 76 Left 2
WINDOW 3 36 40 Left 2
SYMATTR InstName R3
SYMATTR Value {x}
SYMBOL res 1008 -256 R0
SYMATTR InstName R5
SYMATTR Value {y}
SYMBOL res 1008 16 R0
SYMATTR InstName R6
SYMATTR Value {x}
SYMBOL diode 704 80 R90
WINDOW 0 0 32 VBottom 2
WINDOW 3 32 32 VTop 2
SYMATTR InstName D1
SYMATTR Value 1N4148
SYMBOL diode 656 -512 R270
WINDOW 0 32 32 VTop 2
WINDOW 3 0 32 VBottom 2
SYMATTR InstName D2
SYMATTR Value 1N4148
SYMBOL res 1440 -256 R90
WINDOW 0 0 56 VBottom 2
WINDOW 3 32 56 VTop 2
SYMATTR InstName R12
SYMATTR Value {RPhase}
SYMBOL res 1632 -256 R90
WINDOW 0 0 56 VBottom 2
WINDOW 3 32 56 VTop 2
SYMATTR InstName R13
SYMATTR Value {RPhase}
SYMBOL cap 1456 -240 R0
SYMATTR InstName C1
SYMATTR Value {CPhase}
SYMBOL cap 1648 -240 R0
WINDOW 0 26 82 Left 2
SYMATTR InstName C2
SYMATTR Value {CPhase}
SYMBOL OpAmps\\opamp2 1872 -160 R0
SYMATTR InstName U3
SYMATTR Value UA741
SYMBOL res 2048 -112 R180
WINDOW 0 36 76 Left 2
WINDOW 3 36 40 Left 2
SYMATTR InstName R14
SYMATTR Value 100k
SYMBOL res 2096 -224 R0
SYMATTR InstName R15
SYMATTR Value 100k
SYMBOL OpAmps\\opamp2 1184 -416 R0
SYMATTR InstName U2
SYMATTR Value UA741
SYMBOL cap 2432 352 R180
WINDOW 0 24 56 Left 2
WINDOW 3 24 8 Left 2
SYMATTR InstName Cc_Sine
SYMATTR Value 1n
SYMBOL res 2400 128 R0
SYMATTR InstName RB_Sine
SYMATTR Value 159.2k
SYMBOL voltage 2416 144 R180
WINDOW 0 24 96 Left 2
WINDOW 3 24 16 Left 2
WINDOW 123 0 0 Left 0
WINDOW 39 0 0 Left 0
SYMATTR InstName V6
SYMATTR Value 1
SYMBOL nmos4 2496 160 R0
SYMATTR InstName M_Sine
SYMATTR Value CMOSN
SYMATTR Value2 l={2*LAMBDA_2} w={1*width_2} ad={5*width_2*LAMBDA_2} as={5*width_2*LAMBDA_2} pd={peri} ps={peri}
SYMBOL res 2672 80 R90
WINDOW 0 0 56 VBottom 2
WINDOW 3 32 56 VTop 2
SYMATTR InstName RL_Sine
SYMATTR Value 1k
SYMBOL voltage 2704 288 R0
WINDOW 123 0 0 Left 0
WINDOW 39 0 0 Left 0
SYMATTR InstName Vin_Sine
SYMATTR Value SINE(0 250m {ip_freq})
SYMBOL cap 2416 -176 R180
WINDOW 0 24 56 Left 2
WINDOW 3 24 8 Left 2
SYMATTR InstName Cc_Cosine
SYMATTR Value 1n
SYMBOL res 2384 -400 R0
WINDOW 0 -145 64 Left 2
SYMATTR InstName RB_Cosine
SYMATTR Value 160k
SYMBOL voltage 2400 -384 R180
WINDOW 0 24 96 Left 2
WINDOW 3 24 16 Left 2
WINDOW 123 0 0 Left 0
WINDOW 39 0 0 Left 0
SYMATTR InstName V8
SYMATTR Value 1
SYMBOL nmos4 2480 -368 R0
WINDOW 0 51 35 Left 2
SYMATTR InstName M_Cosine
SYMATTR Value CMOSN
SYMATTR Value2 l={2*LAMBDA_2} w={1*width_2} ad={5*width_2*LAMBDA_2} as={5*width_2*LAMBDA_2} pd={peri} ps={peri}
SYMBOL voltage 2688 -240 R0
WINDOW 123 0 0 Left 0
WINDOW 39 0 0 Left 0
SYMATTR InstName Vin_Cosine
SYMATTR Value SINE(0 250m {ip_freq})
SYMBOL res 2960 128 R90
WINDOW 0 0 56 VBottom 2
WINDOW 3 32 56 VTop 2
SYMATTR InstName R10
SYMATTR Value 79.58k
SYMBOL cap 2976 144 R0
SYMATTR InstName C6
SYMATTR Value 1n
SYMBOL cap 2640 112 R0
SYMATTR InstName C7
SYMATTR Value 1µ
SYMBOL res 3248 128 R90
WINDOW 0 0 56 VBottom 2
WINDOW 3 32 56 VTop 2
SYMATTR InstName R11
SYMATTR Value 79.58k
SYMBOL cap 3264 144 R0
SYMATTR InstName C8
SYMATTR Value 1n
SYMBOL res 3040 -400 R180
WINDOW 0 36 76 Left 2
WINDOW 3 36 40 Left 2
SYMATTR InstName R16
SYMATTR Value 1k
SYMBOL cap 2944 -512 R90
WINDOW 0 0 32 VBottom 2
WINDOW 3 32 32 VTop 2
SYMATTR InstName C9
SYMATTR Value 1µ
SYMBOL res 3232 -512 R90
WINDOW 0 0 56 VBottom 2
WINDOW 3 32 56 VTop 2
SYMATTR InstName R17
SYMATTR Value 79.58k
SYMBOL cap 3248 -496 R0
SYMATTR InstName C10
SYMATTR Value 1n
SYMBOL voltage 2400 -80 R0
WINDOW 123 0 0 Left 0
WINDOW 39 0 0 Left 0
SYMATTR InstName V5
SYMATTR Value SINE(0 500m 100k)
SYMBOL res 3488 -512 R90
WINDOW 0 0 56 VBottom 2
WINDOW 3 32 56 VTop 2
SYMATTR InstName R7
SYMATTR Value 79.58k
SYMBOL cap 3504 -496 R0
SYMATTR InstName C3
SYMATTR Value 1n
TEXT -40 248 Left 2 !.include "./UA741.301"
TEXT 1240 -32 Left 2 !.four 1000 10 -1 V(V_Sine)
TEXT 1736 72 Left 2 !.param y = 3k
TEXT 1736 96 Left 2 !.param x =498.81k
TEXT 1736 160 Left 2 !.param R = 819.9
TEXT 1736 184 Left 2 !.param C = 1n
TEXT 1240 176 Left 2 !.tran 0 50m 20m uic
TEXT 1240 8 Left 2 !.four 1000 10 -1 V(V_Cosine)
TEXT 1240 48 Left 2 !.four 1000 10 -1 V(V_inter)
TEXT 1736 248 Left 2 !.param RPhase=1k
TEXT 1736 272 Left 2 !.param CPhase=1n
TEXT -40 296 Left 2 !.include "./TSMC_180nm.txt"
TEXT 2312 568 Left 2 !.param peri = (10*LAMBDA_2) + (2*width_2)
TEXT 2312 536 Left 2 !.param LAMBDA_2 = 0.09u
TEXT 2312 600 Left 2 !.param width_2 = 0.18u
TEXT 2312 632 Left 2 !.param ip_freq = 105k
